# CIF file generated by openbabel 2.4.1, see http://openbabel.sf.net
data_I
_chemical_name_common 'Zn2H4C8O9'
_cell_length_a 9.2075
_cell_length_b 11.1285
_cell_length_c 12.191
_cell_angle_alpha 85.613
_cell_angle_beta 89.858
_cell_angle_gamma 89.891
_symmetry_space_group_name_H-M 'P 1'
_space_group_name_Hall 'P 1'
loop_
    _symmetry_equiv_pos_as_xyz
    x,y,z
loop_
    _atom_site_label
    _atom_site_type_symbol
    _atom_site_fract_x
    _atom_site_fract_y
    _atom_site_fract_z
    _atom_site_occupancy
    Zn      Zn   0.18722   0.11975   0.22211   1.000
    Zn      Zn   0.51431   0.23978   0.92121   1.000
    Zn      Zn   0.68708   0.38011   0.27700   1.000
    Zn      Zn   0.01857   0.26046   0.57414   1.000
    Zn      Zn   0.81334   0.88001   0.77735   1.000
    Zn      Zn   0.48667   0.76065   0.07451   1.000
    Zn      Zn   0.31324   0.62049   0.71857   1.000
    Zn      Zn   0.98120   0.73954   0.42187   1.000
    H       H    0.33768   0.93953   0.91060   1.000
    H       H    0.38679   0.06759   0.68122   1.000
    H       H    0.08528   0.99101   0.89823   1.000
    H       H    0.14560   0.23355   0.84822   1.000
    H       H    0.84027   0.55909   0.58789   1.000
    H       H    0.89005   0.43065   0.81609   1.000
    H       H    0.58877   0.50764   0.59950   1.000
    H       H    0.64914   0.26627   0.64996   1.000
    H       H    0.66280   0.05847   0.08933   1.000
    H       H    0.61141   0.93051   0.31704   1.000
    H       H    0.91542   0.00744   0.10233   1.000
    H       H    0.85514   0.76746   0.15091   1.000
    H       H    0.16010   0.44233   0.40809   1.000
    H       H    0.11059   0.57010   0.17957   1.000
    H       H    0.41167   0.49391   0.39638   1.000
    H       H    0.35072   0.73517   0.34504   1.000
    C       C    0.24531   0.15395   0.99555   1.000
    C       C    0.30094   0.96513   0.82632   1.000
    C       C    0.56050   0.03752   0.79984   1.000
    C       C    0.40138   0.06198   0.77085   1.000
    C       C    0.15603   0.03638   0.83474   1.000
    C       C    0.21631   0.15603   0.87118   1.000
    C       C    0.29287   0.85340   0.76092   1.000
    C       C    0.07024   0.05907   0.72689   1.000
    C       C    0.74787   0.34570   0.50213   1.000
    C       C    0.80302   0.53405   0.67226   1.000
    C       C    0.06320   0.46179   0.69655   1.000
    C       C    0.90445   0.43682   0.72637   1.000
    C       C    0.65914   0.46348   0.66286   1.000
    C       C    0.71972   0.34357   0.62647   1.000
    C       C    0.79482   0.64633   0.73695   1.000
    C       C    0.57116   0.44060   0.76979   1.000
    C       C    0.75721   0.84618   0.00283   1.000
    C       C    0.69987   0.03459   0.17385   1.000
    C       C    0.43897   0.96192   0.19753   1.000
    C       C    0.59772   0.93731   0.22732   1.000
    C       C    0.84336   0.96448   0.16441   1.000
    C       C    0.78417   0.84464   0.12732   1.000
    C       C    0.70773   0.14805   0.23671   1.000
    C       C    0.92859   0.94141   0.27242   1.000
    C       C    0.25272   0.65629   0.49343   1.000
    C       C    0.19744   0.46708   0.32369   1.000
    C       C    0.93719   0.53855   0.29886   1.000
    C       C    0.09592   0.56395   0.26927   1.000
    C       C    0.34122   0.53781   0.33294   1.000
    C       C    0.28043   0.65784   0.36901   1.000
    C       C    0.20550   0.35456   0.25940   1.000
    C       C    0.42907   0.56014   0.22586   1.000
    O       O    0.35187   0.17582   0.81091   1.000
    O       O    0.12639   0.13884   0.65694   1.000
    O       O    0.36907   0.18704   0.02907   1.000
    O       O    0.14258   0.12012   0.05956   1.000
    O       O    0.33219   0.75288   0.81514   1.000
    O       O    0.62189   0.09306   0.87485   1.000
    O       O    0.95033   0.01069   0.71294   1.000
    O       O    0.25141   0.86420   0.66427   1.000
    O       O    0.62034   0.95948   0.74761   1.000
    O       O    0.85558   0.32351   0.68569   1.000
    O       O    0.62567   0.36006   0.83976   1.000
    O       O    0.87176   0.31348   0.46747   1.000
    O       O    0.64380   0.37910   0.43946   1.000
    O       O    0.83095   0.74685   0.68124   1.000
    O       O    0.12504   0.40682   0.62094   1.000
    O       O    0.45012   0.48964   0.78298   1.000
    O       O    0.75650   0.63585   0.83445   1.000
    O       O    0.12100   0.54141   0.75062   1.000
    O       O    0.64783   0.82425   0.18618   1.000
    O       O    0.87145   0.86171   0.34200   1.000
    O       O    0.63400   0.81307   0.96809   1.000
    O       O    0.86108   0.87936   0.93963   1.000
    O       O    0.66816   0.24733   0.18065   1.000
    O       O    0.37878   0.90736   0.12133   1.000
    O       O    0.05047   0.98966   0.28730   1.000
    O       O    0.74901   0.14000   0.33347   1.000
    O       O    0.38077   0.04189   0.25448   1.000
    O       O    0.14427   0.67732   0.31002   1.000
    O       O    0.37462   0.64059   0.15577   1.000
    O       O    0.12853   0.68743   0.52831   1.000
    O       O    0.35737   0.62440   0.55606   1.000
    O       O    0.16896   0.25448   0.31571   1.000
    O       O    0.87507   0.59335   0.37444   1.000
    O       O    0.54973   0.51057   0.21250   1.000
    O       O    0.24379   0.36434   0.16192   1.000
    O       O    0.87971   0.45885   0.24471   1.000
