data_crystal

_cell_length_a    24.55500
_cell_length_b    24.55500
_cell_length_c    24.55500
_cell_angle_alpha 90.00000
_cell_angle_beta  90.00000
_cell_angle_gamma 90.00000

_symmetry_space_group_name_Hall 'P 1'
_symmetry_space_group_name_H-M  'P 1'

loop_
_symmetry_equiv_pos_as_xyz
 'x,y,z'

loop_
_atom_site_label
_atom_site_type_symbol
_atom_site_fract_x
_atom_site_fract_y
_atom_site_fract_z
Si         Si      0.00000   0.09316   0.18499
Al         Al      0.00000   0.18715   0.09042
O          O       0.00000   0.11367   0.24663
O          O       0.00000   0.14459   0.14591
O          O       0.05379   0.05865   0.17152
Si         Si      0.40684   0.00000   0.18499
Si         Si      0.31285   0.00000   0.09042
O          O       0.38633   0.00000   0.24663
O          O       0.35541   0.00000   0.14591
O          O       0.44135   0.05379   0.17152
Si         Si      0.50000   0.40684   0.18499
Si         Si      0.50000   0.31285   0.09042
O          O       0.50000   0.38633   0.24663
O          O       0.50000   0.35541   0.14591
O          O       0.44621   0.44135   0.17152
Si         Si      0.09316   0.50000   0.18499
Si         Si      0.18715   0.50000   0.09042
O          O       0.11367   0.50000   0.24663
O          O       0.14459   0.50000   0.14591
O          O       0.05865   0.44621   0.17152
Si         Si      0.00000   0.90684   0.81501
Si         Si      0.00000   0.81285   0.90958
O          O       0.00000   0.88633   0.75337
O          O       0.00000   0.85541   0.85409
O          O       0.05379   0.94135   0.82848
Si         Si      0.59316   0.00000   0.81501
Si         Si      0.68715   0.00000   0.90958
O          O       0.61367   0.00000   0.75337
O          O       0.64459   0.00000   0.85409
O          O       0.55865   0.05379   0.82848
Si         Si      0.50000   0.59316   0.81501
Al         Al      0.50000   0.68715   0.90958
O          O       0.50000   0.61367   0.75337
O          O       0.50000   0.64459   0.85409
O          O       0.44621   0.55865   0.82848
Si         Si      0.90684   0.50000   0.81501
Al         Al      0.81285   0.50000   0.90958
O          O       0.88633   0.50000   0.75337
O          O       0.85541   0.50000   0.85409
O          O       0.94135   0.44621   0.82848
Si         Si      0.18499   0.00000   0.09316
Al         Al      0.09042   0.00000   0.18715
O          O       0.24663   0.00000   0.11367
O          O       0.14591   0.00000   0.14459
O          O       0.17152   0.05379   0.05865
Si         Si      0.50000   0.18499   0.09316
Al         Al      0.50000   0.09042   0.18715
O          O       0.50000   0.24663   0.11367
O          O       0.50000   0.14591   0.14459
O          O       0.44621   0.17152   0.05865
Si         Si      0.31501   0.50000   0.09316
Al         Al      0.40958   0.50000   0.18715
O          O       0.25337   0.50000   0.11367
O          O       0.35409   0.50000   0.14459
O          O       0.32848   0.44621   0.05865
Si         Si      0.00000   0.31501   0.09316
Al         Al      0.00000   0.40958   0.18715
O          O       0.00000   0.25337   0.11367
O          O       0.00000   0.35409   0.14459
O          O       0.05379   0.32848   0.05865
Si         Si      0.18499   0.00000   0.90684
Al         Al      0.09042   0.00000   0.81285
O          O       0.24663   0.00000   0.88633
O          O       0.14591   0.00000   0.85541
O          O       0.17152   0.94621   0.94135
Si         Si      0.50000   0.18499   0.90684
Al         Al      0.50000   0.09042   0.81285
O          O       0.50000   0.24663   0.88633
O          O       0.50000   0.14591   0.85541
O          O       0.55379   0.17152   0.94135
Si         Si      0.31501   0.50000   0.90684
Al         Al      0.40958   0.50000   0.81285
O          O       0.25337   0.50000   0.88633
O          O       0.35409   0.50000   0.85541
O          O       0.32848   0.55379   0.94135
Si         Si      0.00000   0.31501   0.90684
Al         Al      0.00000   0.40958   0.81285
O          O       0.00000   0.25337   0.88633
O          O       0.00000   0.35409   0.85541
O          O       0.94621   0.32848   0.94135
Si         Si      0.09316   0.18499   0.00000
Al         Al      0.18715   0.09042   0.00000
O          O       0.11367   0.24663   0.00000
O          O       0.14459   0.14591   0.00000
O          O       0.05865   0.17152   0.05379
Si         Si      0.09316   0.31501   0.50000
Al         Al      0.18715   0.40958   0.50000
O          O       0.11367   0.25337   0.50000
O          O       0.14459   0.35409   0.50000
O          O       0.05865   0.32848   0.44621
Si         Si      0.18499   0.09316   0.50000
Al         Al      0.09042   0.18715   0.50000
O          O       0.24663   0.11367   0.50000
O          O       0.14591   0.14459   0.50000
O          O       0.17152   0.05865   0.44621
Si         Si      0.40684   0.18499   0.50000
Al         Al      0.31285   0.09042   0.50000
O          O       0.38633   0.24663   0.50000
O          O       0.35541   0.14591   0.50000
O          O       0.44135   0.17152   0.44621
Si         Si      0.31501   0.90684   0.00000
Al         Al      0.40958   0.81285   0.00000
O          O       0.25337   0.88633   0.00000
O          O       0.35409   0.85541   0.00000
O          O       0.32848   0.94135   0.94621
Si         Si      0.90684   0.81501   0.00000
Al         Al      0.81285   0.90958   0.00000
O          O       0.88633   0.75337   0.00000
O          O       0.85541   0.85409   0.00000
O          O       0.94135   0.82848   0.05379
Si         Si      0.18499   0.90684   0.50000
Al         Al      0.09042   0.81285   0.50000
O          O       0.24663   0.88633   0.50000
O          O       0.14591   0.85541   0.50000
O          O       0.17152   0.94135   0.55379
Si         Si      0.31501   0.59316   0.50000
Al         Al      0.40958   0.68715   0.50000
O          O       0.25337   0.61367   0.50000
O          O       0.35409   0.64459   0.50000
O          O       0.32848   0.55865   0.55379
O          O       0.94621   0.94135   0.82848
O          O       0.55865   0.94621   0.82848
O          O       0.55379   0.55865   0.82848
O          O       0.94135   0.55379   0.82848
O          O       0.94621   0.05865   0.17152
O          O       0.44135   0.94621   0.17152
O          O       0.55379   0.44135   0.17152
O          O       0.05865   0.55379   0.17152
Si         Si      0.81501   0.00000   0.90684
Al         Al      0.90958   0.00000   0.81285
O          O       0.75337   0.00000   0.88633
O          O       0.85409   0.00000   0.85541
O          O       0.82848   0.94621   0.94135
Si         Si      0.50000   0.81501   0.90684
Al         Al      0.50000   0.90958   0.81285
O          O       0.50000   0.75337   0.88633
O          O       0.50000   0.85409   0.85541
O          O       0.55379   0.82848   0.94135
Si         Si      0.68499   0.50000   0.90684
Al         Al      0.59042   0.50000   0.81285
O          O       0.74663   0.50000   0.88633
O          O       0.64591   0.50000   0.85541
O          O       0.67152   0.55379   0.94135
Si         Si      0.00000   0.68499   0.90684
Al         Al      0.00000   0.59042   0.81285
O          O       0.00000   0.74663   0.88633
O          O       0.00000   0.64591   0.85541
O          O       0.94621   0.67152   0.94135
Si         Si      0.81501   0.00000   0.09316
Al         Al      0.90958   0.00000   0.18715
O          O       0.75337   0.00000   0.11367
O          O       0.85409   0.00000   0.14459
O          O       0.82848   0.05379   0.05865
Si         Si      0.50000   0.81501   0.09316
Al         Al      0.50000   0.90958   0.18715
O          O       0.50000   0.75337   0.11367
O          O       0.50000   0.85409   0.14459
O          O       0.44621   0.82848   0.05865
Si         Si      0.68499   0.50000   0.09316
Al         Al      0.59042   0.50000   0.18715
O          O       0.74663   0.50000   0.11367
O          O       0.64591   0.50000   0.14459
O          O       0.67152   0.44621   0.05865
Si         Si      0.00000   0.68499   0.09316
Al         Al      0.00000   0.59042   0.18715
O          O       0.00000   0.74663   0.11367
O          O       0.00000   0.64591   0.14459
O          O       0.05379   0.67152   0.05865
O          O       0.94135   0.82848   0.94621
Si         Si      0.90684   0.68499   0.50000
Al         Al      0.81285   0.59042   0.50000
O          O       0.88633   0.74663   0.50000
O          O       0.85541   0.64591   0.50000
O          O       0.94135   0.67152   0.55379
Si         Si      0.81501   0.90684   0.50000
Al         Al      0.90958   0.81285   0.50000
O          O       0.75337   0.88633   0.50000
O          O       0.85409   0.85541   0.50000
O          O       0.82848   0.94135   0.55379
Si         Si      0.59316   0.81501   0.50000
Al         Al      0.68715   0.90958   0.50000
O          O       0.61367   0.75337   0.50000
O          O       0.64459   0.85409   0.50000
O          O       0.55865   0.82848   0.55379
Si         Si      0.68499   0.09316   0.00000
Al         Al      0.59042   0.18715   0.00000
O          O       0.74663   0.11367   0.00000
O          O       0.64591   0.14459   0.00000
O          O       0.67152   0.05865   0.05379
O          O       0.05865   0.17152   0.94621
Si         Si      0.81501   0.09316   0.50000
Al         Al      0.90958   0.18715   0.50000
O          O       0.75337   0.11367   0.50000
O          O       0.85409   0.14459   0.50000
O          O       0.82848   0.05865   0.44621
Si         Si      0.68499   0.40684   0.50000
Al         Al      0.59042   0.31285   0.50000
O          O       0.74663   0.38633   0.50000
O          O       0.64591   0.35541   0.50000
O          O       0.67152   0.44135   0.44621
Si         Si      0.00000   0.59316   0.68499
Al         Al      0.00000   0.68715   0.59042
O          O       0.00000   0.61367   0.74663
O          O       0.00000   0.64459   0.64591
O          O       0.05379   0.55865   0.67152
Si         Si      0.40684   0.50000   0.68499
Al         Al      0.31285   0.50000   0.59042
O          O       0.38633   0.50000   0.74663
O          O       0.35541   0.50000   0.64591
O          O       0.44135   0.55379   0.67152
Si         Si      0.50000   0.90684   0.68499
Al         Al      0.50000   0.81285   0.59042
O          O       0.50000   0.88633   0.74663
O          O       0.50000   0.85541   0.64591
O          O       0.44621   0.94135   0.67152
Si         Si      0.09316   0.00000   0.68499
Al         Al      0.18715   0.00000   0.59042
O          O       0.11367   0.00000   0.74663
O          O       0.14459   0.00000   0.64591
O          O       0.05865   0.94621   0.67152
Si         Si      0.00000   0.40684   0.31501
Al         Al      0.00000   0.31285   0.40958
O          O       0.00000   0.38633   0.25337
O          O       0.00000   0.35541   0.35409
O          O       0.05379   0.44135   0.32848
Si         Si      0.59316   0.50000   0.31501
Al         Al      0.68715   0.50000   0.40958
O          O       0.61367   0.50000   0.25337
O          O       0.64459   0.50000   0.35409
O          O       0.55865   0.55379   0.32848
Si         Si      0.50000   0.09316   0.31501
Al         Al      0.50000   0.18715   0.40958
O          O       0.50000   0.11367   0.25337
O          O       0.50000   0.14459   0.35409
O          O       0.44621   0.05865   0.32848
Si         Si      0.90684   0.00000   0.31501
Al         Al      0.81285   0.00000   0.40958
O          O       0.88633   0.00000   0.25337
O          O       0.85541   0.00000   0.35409
O          O       0.94135   0.94621   0.32848
Si         Si      0.18499   0.50000   0.59316
Al         Al      0.09042   0.50000   0.68715
O          O       0.24663   0.50000   0.61367
O          O       0.14591   0.50000   0.64459
O          O       0.17152   0.55379   0.55865
Si         Si      0.50000   0.68499   0.59316
Al         Al      0.50000   0.59042   0.68715
O          O       0.50000   0.74663   0.61367
O          O       0.50000   0.64591   0.64459
O          O       0.44621   0.67152   0.55865
Si         Si      0.31501   0.00000   0.59316
Al         Al      0.40958   0.00000   0.68715
O          O       0.25337   0.00000   0.61367
O          O       0.35409   0.00000   0.64459
O          O       0.32848   0.94621   0.55865
Si         Si      0.00000   0.81501   0.59316
Al         Al      0.00000   0.90958   0.68715
O          O       0.00000   0.75337   0.61367
O          O       0.00000   0.85409   0.64459
O          O       0.05379   0.82848   0.55865
Si         Si      0.18499   0.50000   0.40684
Al         Al      0.09042   0.50000   0.31285
O          O       0.24663   0.50000   0.38633
O          O       0.14591   0.50000   0.35541
O          O       0.17152   0.44621   0.44135
Si         Si      0.50000   0.68499   0.40684
Al         Al      0.50000   0.59042   0.31285
O          O       0.50000   0.74663   0.38633
O          O       0.50000   0.64591   0.35541
O          O       0.55379   0.67152   0.44135
Si         Si      0.31501   0.00000   0.40684
Al         Al      0.40958   0.00000   0.31285
O          O       0.25337   0.00000   0.38633
O          O       0.35409   0.00000   0.35541
O          O       0.32848   0.05379   0.44135
Si         Si      0.00000   0.81501   0.40684
Al         Al      0.00000   0.90958   0.31285
O          O       0.00000   0.75337   0.38633
O          O       0.00000   0.85409   0.35541
O          O       0.94621   0.82848   0.44135
Si         Si      0.09316   0.68499   0.50000
Al         Al      0.18715   0.59042   0.50000
O          O       0.11367   0.74663   0.50000
O          O       0.14459   0.64591   0.50000
O          O       0.05865   0.67152   0.55379
Si         Si      0.09316   0.81501   0.00000
Al         Al      0.18715   0.90958   0.00000
O          O       0.11367   0.75337   0.00000
O          O       0.14459   0.85409   0.00000
O          O       0.05865   0.82848   0.94621
Si         Si      0.18499   0.59316   0.00000
Al         Al      0.09042   0.68715   0.00000
O          O       0.24663   0.61367   0.00000
O          O       0.14591   0.64459   0.00000
O          O       0.17152   0.55865   0.94621
Si         Si      0.40684   0.68499   0.00000
Al         Al      0.31285   0.59042   0.00000
O          O       0.38633   0.74663   0.00000
O          O       0.35541   0.64591   0.00000
O          O       0.44135   0.67152   0.94621
Si         Si      0.31501   0.40684   0.50000
Al         Al      0.40958   0.31285   0.50000
O          O       0.25337   0.38633   0.50000
O          O       0.35409   0.35541   0.50000
O          O       0.32848   0.44135   0.44621
Si         Si      0.90684   0.31501   0.50000
Al         Al      0.81285   0.40958   0.50000
O          O       0.88633   0.25337   0.50000
O          O       0.85541   0.35409   0.50000
O          O       0.94135   0.32848   0.55379
Si         Si      0.18499   0.40684   0.00000
Al         Al      0.09042   0.31285   0.00000
O          O       0.24663   0.38633   0.00000
O          O       0.14591   0.35541   0.00000
O          O       0.17152   0.44135   0.05379
Si         Si      0.31501   0.09316   0.00000
Al         Al      0.40958   0.18715   0.00000
O          O       0.25337   0.11367   0.00000
O          O       0.35409   0.14459   0.00000
O          O       0.32848   0.05865   0.05379
O          O       0.94621   0.44135   0.32848
O          O       0.55865   0.44621   0.32848
O          O       0.55379   0.05865   0.32848
O          O       0.94135   0.05379   0.32848
O          O       0.94621   0.55865   0.67152
O          O       0.44135   0.44621   0.67152
O          O       0.55379   0.94135   0.67152
O          O       0.05865   0.05379   0.67152
Si         Si      0.81501   0.50000   0.40684
Al         Al      0.90958   0.50000   0.31285
O          O       0.75337   0.50000   0.38633
O          O       0.85409   0.50000   0.35541
O          O       0.82848   0.44621   0.44135
Si         Si      0.50000   0.31501   0.40684
Al         Al      0.50000   0.40958   0.31285
O          O       0.50000   0.25337   0.38633
O          O       0.50000   0.35409   0.35541
O          O       0.55379   0.32848   0.44135
Si         Si      0.68499   0.00000   0.40684
Al         Al      0.59042   0.00000   0.31285
O          O       0.74663   0.00000   0.38633
O          O       0.64591   0.00000   0.35541
O          O       0.67152   0.05379   0.44135
Si         Si      0.00000   0.18499   0.40684
Al         Al      0.00000   0.09042   0.31285
O          O       0.00000   0.24663   0.38633
O          O       0.00000   0.14591   0.35541
O          O       0.94621   0.17152   0.44135
Si         Si      0.81501   0.50000   0.59316
Al         Al      0.90958   0.50000   0.68715
O          O       0.75337   0.50000   0.61367
O          O       0.85409   0.50000   0.64459
O          O       0.82848   0.55379   0.55865
Si         Si      0.50000   0.31501   0.59316
Al         Al      0.50000   0.40958   0.68715
O          O       0.50000   0.25337   0.61367
O          O       0.50000   0.35409   0.64459
O          O       0.44621   0.32848   0.55865
Si         Si      0.68499   0.00000   0.59316
Al         Al      0.59042   0.00000   0.68715
O          O       0.74663   0.00000   0.61367
O          O       0.64591   0.00000   0.64459
O          O       0.67152   0.94621   0.55865
Si         Si      0.00000   0.18499   0.59316
Al         Al      0.00000   0.09042   0.68715
O          O       0.00000   0.24663   0.61367
O          O       0.00000   0.14591   0.64459
O          O       0.05379   0.17152   0.55865
O          O       0.94135   0.32848   0.44621
Si         Si      0.90684   0.18499   0.00000
Al         Al      0.81285   0.09042   0.00000
O          O       0.88633   0.24663   0.00000
O          O       0.85541   0.14591   0.00000
O          O       0.94135   0.17152   0.05379
Si         Si      0.81501   0.40684   0.00000
Al         Al      0.90958   0.31285   0.00000
O          O       0.75337   0.38633   0.00000
O          O       0.85409   0.35541   0.00000
O          O       0.82848   0.44135   0.05379
Si         Si      0.59316   0.31501   0.00000
Al         Al      0.68715   0.40958   0.00000
O          O       0.61367   0.25337   0.00000
O          O       0.64459   0.35409   0.00000
O          O       0.55865   0.32848   0.05379
Si         Si      0.68499   0.59316   0.50000
Al         Al      0.59042   0.68715   0.50000
O          O       0.74663   0.61367   0.50000
O          O       0.64591   0.64459   0.50000
O          O       0.67152   0.55865   0.55379
O          O       0.05865   0.67152   0.44621
Si         Si      0.81501   0.59316   0.00000
Al         Al      0.90958   0.68715   0.00000
O          O       0.75337   0.61367   0.00000
O          O       0.85409   0.64459   0.00000
O          O       0.82848   0.55865   0.94621
Si         Si      0.68499   0.90684   0.00000
Al         Al      0.59042   0.81285   0.00000
O          O       0.74663   0.88633   0.00000
O          O       0.64591   0.85541   0.00000
O          O       0.67152   0.94135   0.94621
Si         Si      0.50000   0.09316   0.68499
Al         Al      0.50000   0.18715   0.59042
O          O       0.50000   0.11367   0.74663
O          O       0.50000   0.14459   0.64591
O          O       0.55379   0.05865   0.67152
Si         Si      0.90684   0.00000   0.68499
Al         Al      0.81285   0.00000   0.59042
O          O       0.88633   0.00000   0.74663
O          O       0.85541   0.00000   0.64591
O          O       0.94135   0.05379   0.67152
Si         Si      0.00000   0.40684   0.68499
Al         Al      0.00000   0.31285   0.59042
O          O       0.00000   0.38633   0.74663
O          O       0.00000   0.35541   0.64591
O          O       0.94621   0.44135   0.67152
Si         Si      0.59316   0.50000   0.68499
Al         Al      0.68715   0.50000   0.59042
O          O       0.61367   0.50000   0.74663
O          O       0.64459   0.50000   0.64591
O          O       0.55865   0.44621   0.67152
Si         Si      0.50000   0.90684   0.31501
Al         Al      0.50000   0.81285   0.40958
O          O       0.50000   0.88633   0.25337
O          O       0.50000   0.85541   0.35409
O          O       0.55379   0.94135   0.32848
Si         Si      0.09316   0.00000   0.31501
Al         Al      0.18715   0.00000   0.40958
O          O       0.11367   0.00000   0.25337
O          O       0.14459   0.00000   0.35409
O          O       0.05865   0.05379   0.32848
Si         Si      0.00000   0.59316   0.31501
Al         Al      0.00000   0.68715   0.40958
O          O       0.00000   0.61367   0.25337
O          O       0.00000   0.64459   0.35409
O          O       0.94621   0.55865   0.32848
Si         Si      0.40684   0.50000   0.31501
Al         Al      0.31285   0.50000   0.40958
O          O       0.38633   0.50000   0.25337
O          O       0.35541   0.50000   0.35409
O          O       0.44135   0.44621   0.32848
O          O       0.67152   0.05379   0.55865
O          O       0.94621   0.17152   0.55865
O          O       0.82848   0.44621   0.55865
O          O       0.55379   0.32848   0.55865
O          O       0.67152   0.94621   0.44135
O          O       0.05379   0.17152   0.44135
O          O       0.82848   0.55379   0.44135
O          O       0.44621   0.32848   0.44135
Si         Si      0.59316   0.18499   0.50000
Al         Al      0.68715   0.09042   0.50000
O          O       0.61367   0.24663   0.50000
O          O       0.64459   0.14591   0.50000
O          O       0.55865   0.17152   0.55379
O          O       0.55865   0.32848   0.94621
O          O       0.67152   0.05865   0.94621
O          O       0.94135   0.17152   0.94621
O          O       0.82848   0.94135   0.44621
Si         Si      0.40684   0.81501   0.50000
Al         Al      0.31285   0.90958   0.50000
O          O       0.38633   0.75337   0.50000
O          O       0.35541   0.85409   0.50000
O          O       0.44135   0.82848   0.55379
O          O       0.67152   0.94135   0.05379
O          O       0.82848   0.55865   0.05379
O          O       0.44621   0.94135   0.32848
O          O       0.05865   0.94621   0.32848
O          O       0.05379   0.55865   0.32848
O          O       0.44135   0.55379   0.32848
O          O       0.44621   0.05865   0.67152
O          O       0.94135   0.94621   0.67152
O          O       0.05379   0.44135   0.67152
O          O       0.55865   0.55379   0.67152
O          O       0.32848   0.94621   0.44135
O          O       0.05379   0.82848   0.44135
O          O       0.17152   0.55379   0.44135
O          O       0.44621   0.67152   0.44135
O          O       0.32848   0.05379   0.55865
O          O       0.94621   0.82848   0.55865
O          O       0.17152   0.44621   0.55865
O          O       0.55379   0.67152   0.55865
O          O       0.44135   0.82848   0.44621
O          O       0.44135   0.67152   0.05379
O          O       0.32848   0.94135   0.05379
O          O       0.05865   0.82848   0.05379
O          O       0.17152   0.05865   0.55379
O          O       0.55865   0.17152   0.44621
O          O       0.32848   0.05865   0.94621
O          O       0.17152   0.44135   0.94621
Si         Si      0.50000   0.59316   0.18499
Al         Al      0.50000   0.68715   0.09042
O          O       0.50000   0.61367   0.24663
O          O       0.50000   0.64459   0.14591
O          O       0.55379   0.55865   0.17152
Si         Si      0.90684   0.50000   0.18499
Al         Al      0.81285   0.50000   0.09042
O          O       0.88633   0.50000   0.24663
O          O       0.85541   0.50000   0.14591
O          O       0.94135   0.55379   0.17152
Si         Si      0.00000   0.90684   0.18499
Al         Al      0.00000   0.81285   0.09042
O          O       0.00000   0.88633   0.24663
O          O       0.00000   0.85541   0.14591
O          O       0.94621   0.94135   0.17152
Si         Si      0.59316   0.00000   0.18499
Al         Al      0.68715   0.00000   0.09042
O          O       0.61367   0.00000   0.24663
O          O       0.64459   0.00000   0.14591
O          O       0.55865   0.94621   0.17152
Si         Si      0.50000   0.40684   0.81501
Al         Al      0.50000   0.31285   0.90958
O          O       0.50000   0.38633   0.75337
O          O       0.50000   0.35541   0.85409
O          O       0.55379   0.44135   0.82848
Si         Si      0.09316   0.50000   0.81501
Al         Al      0.18715   0.50000   0.90958
O          O       0.11367   0.50000   0.75337
O          O       0.14459   0.50000   0.85409
O          O       0.05865   0.55379   0.82848
Si         Si      0.00000   0.09316   0.81501
Al         Al      0.00000   0.18715   0.90958
O          O       0.00000   0.11367   0.75337
O          O       0.00000   0.14459   0.85409
O          O       0.94621   0.05865   0.82848
Si         Si      0.40684   0.00000   0.81501
Al         Al      0.31285   0.00000   0.90958
O          O       0.38633   0.00000   0.75337
O          O       0.35541   0.00000   0.85409
O          O       0.44135   0.94621   0.82848
O          O       0.67152   0.55379   0.05865
O          O       0.94621   0.67152   0.05865
O          O       0.82848   0.94621   0.05865
O          O       0.55379   0.82848   0.05865
O          O       0.67152   0.44621   0.94135
O          O       0.05379   0.67152   0.94135
O          O       0.82848   0.05379   0.94135
O          O       0.44621   0.82848   0.94135
Si         Si      0.59316   0.68499   0.00000
Al         Al      0.68715   0.59042   0.00000
O          O       0.61367   0.74663   0.00000
O          O       0.64459   0.64591   0.00000
O          O       0.55865   0.67152   0.05379
O          O       0.55865   0.82848   0.44621
O          O       0.67152   0.55865   0.44621
O          O       0.94135   0.67152   0.44621
O          O       0.82848   0.44135   0.94621
Si         Si      0.40684   0.31501   0.00000
Al         Al      0.31285   0.40958   0.00000
O          O       0.38633   0.25337   0.00000
O          O       0.35541   0.35409   0.00000
O          O       0.44135   0.32848   0.05379
O          O       0.67152   0.44135   0.55379
O          O       0.82848   0.05865   0.55379
O          O       0.44621   0.44135   0.82848
O          O       0.05865   0.44621   0.82848
O          O       0.05379   0.05865   0.82848
O          O       0.44135   0.05379   0.82848
O          O       0.44621   0.55865   0.17152
O          O       0.94135   0.44621   0.17152
O          O       0.05379   0.94135   0.17152
O          O       0.55865   0.05379   0.17152
O          O       0.32848   0.44621   0.94135
O          O       0.05379   0.32848   0.94135
O          O       0.17152   0.05379   0.94135
O          O       0.44621   0.17152   0.94135
O          O       0.32848   0.55379   0.05865
O          O       0.94621   0.32848   0.05865
O          O       0.17152   0.94621   0.05865
O          O       0.55379   0.17152   0.05865
O          O       0.44135   0.32848   0.94621
O          O       0.44135   0.17152   0.55379
O          O       0.32848   0.44135   0.55379
O          O       0.05865   0.32848   0.55379
O          O       0.17152   0.55865   0.05379
O          O       0.55865   0.67152   0.94621
O          O       0.32848   0.55865   0.44621
O          O       0.17152   0.94135   0.44621
